/*--------------------------------*- C++ -*----------------------------------*\
| =========                 |                                                 |
| \\      /  F ield         | OpenFOAM: The Open Source CFD Toolbox           |
|  \\    /   O peration     | Version:  v2406                                 |
|   \\  /    A nd           | Website:  www.openfoam.com                      |
|    \\/     M anipulation  |                                                 |
\*---------------------------------------------------------------------------*/
FoamFile
{
    version     2.0;
    format      ascii;
    class       dictionary;
    object      blockMeshDict;
}
// * * * * * * * * * * * * * * * * * * * * * * * * * * * * * * * * * * * * * //

scale   1;

vertices
(
    (0  0   0)
    (2  0   0)
    (2  2.5 0)
    (0  2.5 0)
    (0  0   2)
    (2  0   2)
    (2  2.5 2)
    (0  2.5 2)

    (2  4.5 0)
    (0  4.5 0)
    (2  4.5 2)
    (0  4.5 2)

    (5  2.5 0)
    (5  4.5 0)
    (5  4.5 2)
    (5  2.5 2)
);

blocks
(
    hex (0 1 2 3 4 5 6 7) (20 25 20) simpleGrading (1 1 1)
    hex (3 2 8 9 7 6 10 11) (20 20 20) simpleGrading (1 1 1)
    hex (2 12 13 8 6 15 14 10) (30 20 20) simpleGrading (1 1 1)
);

edges
(
);

boundary
(
    walls
    {
        type wall;
        faces
        (
            (0 3 7 4)
            (7 3 9 11)
            (9 8 10 11)
            (8 13 14 10)
            (5 1 2 6)
            (6 15 12 2)
        );
    }

    inlet
    {
        type patch;
        faces
        (
            (0 1 5 4)
        );
    }

    outlet
    {
        type patch;
        faces
        (
            (15 12 13 14)
        );
    }

    frontAndBack
    {
        type wall;
        faces
        (
            (4 5 6 7)
            (7 6 10 11)
            (6 15 14 10)
            (0 1 2 3)
            (3 2 8 9)
            (2 12 13 8)
        );
    }
);


// ************************************************************************* //
